# generated using pymatgen
data_NaGaPO4F
_symmetry_space_group_name_H-M   Pna2_1
_cell_length_a   12.66891700
_cell_length_b   6.21475600
_cell_length_c   10.55901100
_cell_angle_alpha   90.00000000
_cell_angle_beta   90.00000000
_cell_angle_gamma   90.00000000
_symmetry_Int_Tables_number   33
_chemical_formula_structural   NaGaPO4F
_chemical_formula_sum   'Na8 Ga8 P8 O32 F8'
_cell_volume   831.35557889
_cell_formula_units_Z   8
loop_
 _symmetry_equiv_pos_site_id
 _symmetry_equiv_pos_as_xyz
  1  'x, y, z'
  2  '-x, -y, z+1/2'
  3  '-x+1/2, y+1/2, z+1/2'
  4  'x+1/2, -y+1/2, z'
loop_
 _atom_site_type_symbol
 _atom_site_label
 _atom_site_symmetry_multiplicity
 _atom_site_fract_x
 _atom_site_fract_y
 _atom_site_fract_z
 _atom_site_occupancy
  Na  Na0  4  0.10236500  0.76377700  0.83221800  1.0
  Na  Na1  4  0.14955800  0.28581400  0.53603100  1.0
  Ga  Ga2  4  0.11289900  0.01302400  0.26890300  1.0
  Ga  Ga3  4  0.23180300  0.26268000  0.00316700  1.0
  P  P4  4  0.01698900  0.82886200  0.52715900  1.0
  P  P5  4  0.18641000  0.51911100  0.26018000  1.0
  O  O6  4  0.00910900  0.93874400  0.65957400  1.0
  O  O7  4  0.03062800  0.01724900  0.42962700  1.0
  O  O8  4  0.07957800  0.31212500  0.99558600  1.0
  O  O9  4  0.10941000  0.70847900  0.24784000  1.0
  O  O10  4  0.11578100  0.68174900  0.52705000  1.0
  O  O11  4  0.11911900  0.32249300  0.29927300  1.0
  O  O12  4  0.22707800  0.05223300  0.86427300  1.0
  O  O13  4  0.24859900  0.48258500  0.13529700  1.0
  F  F14  4  0.21479000  0.02113100  0.12574100  1.0
  F  F15  4  0.24714600  0.00266500  0.37973600  1.0
